Version 4
SHEET 1 880 680
WIRE 304 -16 272 -16
WIRE 384 -16 368 -16
WIRE 80 32 -32 32
WIRE 208 32 80 32
WIRE 272 32 272 -16
WIRE 272 32 208 32
WIRE 384 32 384 -16
WIRE 464 32 384 32
WIRE 272 80 272 32
WIRE 288 80 272 80
WIRE 384 80 384 32
WIRE 384 80 368 80
WIRE -32 96 -32 32
WIRE 80 96 80 32
WIRE 464 96 464 32
WIRE 208 112 208 32
WIRE -32 256 -32 176
WIRE 80 256 80 176
WIRE 80 256 -32 256
WIRE 208 256 208 176
WIRE 208 256 80 256
WIRE 464 256 464 176
WIRE 464 256 208 256
FLAG -32 256 0
FLAG 464 32 a
SYMBOL res 64 80 R0
SYMATTR InstName R1
SYMATTR Value {5/3}
SYMBOL res 480 192 R180
WINDOW 0 36 76 Left 2
WINDOW 3 36 40 Left 2
SYMATTR InstName RL
SYMATTR Value 1
SYMBOL current -32 176 R180
WINDOW 0 24 80 Left 2
WINDOW 3 24 0 Left 2
WINDOW 123 24 -28 Left 2
WINDOW 39 0 0 Left 0
SYMATTR InstName I1
SYMATTR Value ""
SYMATTR Value2 AC 1
SYMBOL cap 192 112 R0
SYMATTR InstName C1
SYMATTR Value {3/5}
SYMBOL cap 368 -32 R90
WINDOW 0 0 32 VBottom 2
WINDOW 3 32 32 VTop 2
SYMATTR InstName C2
SYMATTR Value {3/4}
SYMBOL res 384 64 R90
WINDOW 0 0 56 VBottom 2
WINDOW 3 32 56 VTop 2
SYMATTR InstName R2
SYMATTR Value {1/3}
TEXT -110 280 Left 2 !.ac dec 1024 1m 10
